<?xml version="1.0" encoding="UTF-8"?>

<!-- generated on 07/09/20 21:57:31 by Eclipse SUMO netedit Version 1.5.0
<configuration xmlns:xsi="http://www.w3.org/2001/XMLSchema-instance" xsi:noNamespaceSchemaLocation="http://sumo.dlr.de/xsd/netconvertConfiguration.xsd">

    <input>
        <sumo-net-file value="C:\Users\redwi\Downloads\SUMMER%2020\DMD\Network%20Calibration\Overpass\Calibrated%20Lights\intersection.net.xml"/>
    </input>

    <output>
        <output-file value="C:\Users\redwi\Downloads\SUMMER%2020\DMD\Network%20Calibration\Overpass\Calibrated%20Lights\intersection.net.xml"/>
    </output>

    <processing>
        <geometry.min-radius.fix.railways value="false"/>
        <geometry.max-grade.fix value="false"/>
        <offset.disable-normalization value="true"/>
        <lefthand value="false"/>
    </processing>

    <junctions>
        <no-turnarounds value="true"/>
        <junctions.corner-detail value="5"/>
        <junctions.limit-turn-speed value="5.5"/>
        <rectangular-lane-cut value="false"/>
    </junctions>

    <pedestrian>
        <walkingareas value="false"/>
    </pedestrian>

    <report>
        <aggregate-warnings value="5"/>
    </report>

</configuration>
-->

<net version="1.3" junctionCornerDetail="5" limitTurnSpeed="5.50" xmlns:xsi="http://www.w3.org/2001/XMLSchema-instance" xsi:noNamespaceSchemaLocation="http://sumo.dlr.de/xsd/net_file.xsd">

    <location netOffset="-473785.09,-3158069.31" convBoundary="1450.15,0.00,5914.36,5368.71" origBoundary="-81.268041,28.549256,-81.207565,28.597717" projParameter="+proj=utm +zone=17 +ellps=WGS84 +datum=WGS84 +units=m +no_defs"/>

    <type id="highway.bridleway" priority="1" numLanes="1" speed="2.78" allow="pedestrian" oneway="1" width="2.00"/>
    <type id="highway.bus_guideway" priority="1" numLanes="1" speed="27.78" allow="bus" oneway="1"/>
    <type id="highway.cycleway" priority="1" numLanes="1" speed="8.33" allow="bicycle" oneway="0" width="1.00"/>
    <type id="highway.footway" priority="1" numLanes="1" speed="2.78" allow="pedestrian" oneway="1" width="2.00"/>
    <type id="highway.ford" priority="1" numLanes="1" speed="2.78" allow="army" oneway="0"/>
    <type id="highway.living_street" priority="2" numLanes="1" speed="2.78" disallow="tram rail_urban rail rail_electric rail_fast ship" oneway="0"/>
    <type id="highway.motorway" priority="14" numLanes="2" speed="39.44" allow="private emergency authority army vip passenger hov taxi bus coach delivery truck trailer motorcycle evehicle custom1 custom2" oneway="1"/>
    <type id="highway.motorway_link" priority="9" numLanes="1" speed="22.22" allow="private emergency authority army vip passenger hov taxi bus coach delivery truck trailer motorcycle evehicle custom1 custom2" oneway="1"/>
    <type id="highway.path" priority="1" numLanes="1" speed="2.78" allow="pedestrian bicycle" oneway="1" width="2.00"/>
    <type id="highway.pedestrian" priority="1" numLanes="1" speed="2.78" allow="pedestrian" oneway="1" width="2.00"/>
    <type id="highway.primary" priority="12" numLanes="2" speed="27.78" disallow="tram rail_urban rail rail_electric rail_fast ship" oneway="0"/>
    <type id="highway.primary_link" priority="7" numLanes="1" speed="22.22" disallow="tram rail_urban rail rail_electric rail_fast ship" oneway="0"/>
    <type id="highway.raceway" priority="15" numLanes="2" speed="83.33" allow="vip" oneway="0"/>
    <type id="highway.residential" priority="3" numLanes="1" speed="13.89" disallow="tram rail_urban rail rail_electric rail_fast ship" oneway="0"/>
    <type id="highway.secondary" priority="11" numLanes="1" speed="27.78" disallow="tram rail_urban rail rail_electric rail_fast ship" oneway="0"/>
    <type id="highway.secondary_link" priority="6" numLanes="1" speed="22.22" disallow="tram rail_urban rail rail_electric rail_fast ship" oneway="0"/>
    <type id="highway.service" priority="1" numLanes="1" speed="5.56" allow="pedestrian delivery bicycle" oneway="0"/>
    <type id="highway.stairs" priority="1" numLanes="1" speed="1.39" allow="pedestrian" oneway="1" width="2.00"/>
    <type id="highway.step" priority="1" numLanes="1" speed="1.39" allow="pedestrian" oneway="1" width="2.00"/>
    <type id="highway.steps" priority="1" numLanes="1" speed="1.39" allow="pedestrian" oneway="1" width="2.00"/>
    <type id="highway.tertiary" priority="10" numLanes="1" speed="22.22" disallow="tram rail_urban rail rail_electric rail_fast ship" oneway="0"/>
    <type id="highway.tertiary_link" priority="5" numLanes="1" speed="22.22" disallow="tram rail_urban rail rail_electric rail_fast ship" oneway="0"/>
    <type id="highway.track" priority="1" numLanes="1" speed="5.56" disallow="tram rail_urban rail rail_electric rail_fast ship" oneway="0"/>
    <type id="highway.trunk" priority="13" numLanes="2" speed="27.78" disallow="pedestrian bicycle tram rail_urban rail rail_electric rail_fast ship" oneway="0"/>
    <type id="highway.trunk_link" priority="8" numLanes="1" speed="22.22" disallow="pedestrian bicycle tram rail_urban rail rail_electric rail_fast ship" oneway="0"/>
    <type id="highway.unclassified" priority="4" numLanes="1" speed="13.89" disallow="tram rail_urban rail rail_electric rail_fast ship" oneway="0"/>
    <type id="highway.unsurfaced" priority="1" numLanes="1" speed="8.33" disallow="tram rail_urban rail rail_electric rail_fast ship" oneway="0"/>
    <type id="railway.highspeed" priority="21" numLanes="1" speed="69.44" allow="rail_fast" oneway="1"/>
    <type id="railway.light_rail" priority="19" numLanes="1" speed="27.78" allow="rail_urban" oneway="1"/>
    <type id="railway.preserved" priority="16" numLanes="1" speed="27.78" allow="rail" oneway="1"/>
    <type id="railway.rail" priority="20" numLanes="1" speed="44.44" allow="rail" oneway="1"/>
    <type id="railway.subway" priority="18" numLanes="1" speed="27.78" allow="rail_urban" oneway="1"/>
    <type id="railway.tram" priority="17" numLanes="1" speed="13.89" allow="tram" oneway="1"/>

    <edge id=":b_0" function="internal">
        <lane id=":b_0_0" index="0" disallow="tram rail_urban rail rail_electric rail_fast ship" speed="20.12" length="8.81" shape="4619.43,2125.78 4616.97,2126.87 4615.74,2128.69 4614.52,2130.51 4612.06,2131.57"/>
        <lane id=":b_0_1" index="1" disallow="tram rail_urban rail rail_electric rail_fast ship" speed="20.12" length="8.81" shape="4619.43,2125.78 4617.07,2126.35 4615.55,2127.10 4614.02,2127.85 4611.66,2128.39"/>
        <lane id=":b_0_2" index="2" disallow="tram rail_urban rail rail_electric rail_fast ship" speed="20.12" length="8.81" shape="4619.43,2125.78 4617.01,2125.85 4615.35,2125.52 4613.69,2125.17 4611.27,2125.22"/>
        <lane id=":b_0_3" index="3" disallow="tram rail_urban rail rail_electric rail_fast ship" speed="20.12" length="8.81" shape="4619.00,2122.61 4616.55,2123.69 4615.33,2125.52 4614.11,2127.34 4611.66,2128.39"/>
        <lane id=":b_0_4" index="4" disallow="tram rail_urban rail rail_electric rail_fast ship" speed="20.12" length="8.81" shape="4619.00,2122.61 4616.66,2123.17 4615.14,2123.93 4613.62,2124.68 4611.27,2125.22"/>
        <lane id=":b_0_5" index="5" disallow="tram rail_urban rail rail_electric rail_fast ship" speed="20.12" length="8.81" shape="4619.00,2122.61 4616.60,2122.68 4614.94,2122.34 4613.28,2122.00 4610.88,2122.04"/>
        <lane id=":b_0_6" index="6" disallow="tram rail_urban rail rail_electric rail_fast ship" speed="20.12" length="8.81" shape="4619.00,2122.61 4616.37,2122.20 4614.74,2120.76 4613.11,2119.30 4610.48,2118.87"/>
        <lane id=":b_0_7" index="7" disallow="tram rail_urban rail rail_electric rail_fast ship" speed="20.12" length="8.81" shape="4618.58,2119.44 4616.24,2120.00 4614.73,2120.76 4613.21,2121.50 4610.88,2122.04"/>
        <lane id=":b_0_8" index="8" disallow="tram rail_urban rail rail_electric rail_fast ship" speed="20.12" length="8.81" shape="4618.58,2119.44 4616.18,2119.51 4614.53,2119.17 4612.88,2118.82 4610.48,2118.87"/>
        <lane id=":b_0_9" index="9" disallow="tram rail_urban rail rail_electric rail_fast ship" speed="20.12" length="8.81" shape="4618.58,2119.44 4615.96,2119.03 4614.34,2117.58 4612.71,2116.12 4610.09,2115.69"/>
    </edge>
    <edge id=":c_0" function="internal">
        <lane id=":c_0_0" index="0" disallow="tram rail_urban rail rail_electric rail_fast ship" speed="6.51" length="8.55" shape="4326.75,2161.81 4324.34,2162.26 4322.61,2163.28 4321.56,2164.87 4321.19,2167.03"/>
    </edge>
    <edge id=":c_1" function="internal">
        <lane id=":c_1_0" index="0" disallow="tram rail_urban rail rail_electric rail_fast ship" speed="20.12" length="27.82" shape="4327.51,2158.56 4299.98,2162.53"/>
    </edge>
    <edge id=":c_2" function="internal">
        <lane id=":c_2_0" index="0" disallow="tram rail_urban rail rail_electric rail_fast ship" speed="20.12" length="28.08" shape="4328.28,2155.31 4300.49,2159.29"/>
    </edge>
    <edge id=":c_3" function="internal">
        <lane id=":c_3_0" index="0" disallow="tram rail_urban rail rail_electric rail_fast ship" speed="20.12" length="28.33" shape="4329.05,2152.06 4301.00,2156.04"/>
    </edge>
    <edge id=":c_4" function="internal">
        <lane id=":c_4_0" index="0" disallow="tram rail_urban rail rail_electric rail_fast ship" speed="11.61" length="30.15" shape="4329.82,2148.81 4320.34,2148.15 4313.59,2144.90 4309.57,2139.07 4308.29,2130.64"/>
        <lane id=":c_4_1" index="1" disallow="tram rail_urban rail rail_electric rail_fast ship" speed="10.85" length="30.15" shape="4330.58,2145.57 4322.18,2144.83 4316.20,2142.11 4312.63,2137.40 4311.49,2130.71"/>
    </edge>
    <edge id=":c_6" function="internal">
        <lane id=":c_6_0" index="0" disallow="tram rail_urban rail rail_electric rail_fast ship" speed="4.42" length="7.77" shape="4330.58,2145.57 4329.05,2144.80 4328.92,2143.01 4329.93,2141.15 4331.85,2140.18"/>
    </edge>
    <edge id=":c_7" function="internal">
        <lane id=":c_7_0" index="0" disallow="tram rail_urban rail rail_electric rail_fast ship" speed="4.58" length="4.40" shape="4330.61,2131.10 4330.77,2132.30 4331.28,2133.11 4332.17,2133.52 4333.42,2133.53"/>
    </edge>
    <edge id=":c_8" function="internal">
        <lane id=":c_8_0" index="0" disallow="tram rail_urban rail rail_electric rail_fast ship" speed="20.12" length="36.61" shape="4327.41,2131.03 4326.29,2142.95 4324.20,2152.13 4322.16,2159.75 4321.19,2167.03"/>
    </edge>
    <edge id=":c_9" function="internal">
        <lane id=":c_9_0" index="0" disallow="tram rail_urban rail rail_electric rail_fast ship" speed="20.12" length="36.95" shape="4324.21,2130.97 4322.74,2143.00 4320.06,2152.30 4317.88,2159.98 4317.94,2167.16"/>
    </edge>
    <edge id=":c_10" function="internal">
        <lane id=":c_10_0" index="0" disallow="tram rail_urban rail rail_electric rail_fast ship" speed="13.97" length="42.09" shape="4321.02,2130.91 4319.45,2144.19 4315.42,2153.89 4308.93,2160.00 4299.98,2162.53"/>
    </edge>
    <edge id=":c_11" function="internal">
        <lane id=":c_11_0" index="0" disallow="tram rail_urban rail rail_electric rail_fast ship" speed="13.07" length="36.74" shape="4317.82,2130.85 4316.51,2142.84 4313.18,2151.57 4307.84,2157.06 4300.49,2159.29"/>
    </edge>
    <edge id=":c_12" function="internal">
        <lane id=":c_12_0" index="0" disallow="tram rail_urban rail rail_electric rail_fast ship" speed="12.51" length="33.58" shape="4317.82,2130.85 4316.57,2141.43 4313.35,2149.15 4308.16,2154.03 4301.00,2156.04"/>
    </edge>
    <edge id=":c_13" function="internal">
        <lane id=":c_13_0" index="0" disallow="tram rail_urban rail rail_electric rail_fast ship" speed="4.07" length="6.33" shape="4317.82,2130.85 4311.49,2130.71"/>
    </edge>
    <edge id=":c_14" function="internal">
        <lane id=":c_14_0" index="0" disallow="tram rail_urban rail rail_electric rail_fast ship" speed="4.37" length="3.22" shape="4305.37,2131.34 4306.25,2131.33 4307.20,2131.33 4307.97,2131.15 4308.29,2130.64"/>
    </edge>
    <edge id=":c_15" function="internal">
        <lane id=":c_15_0" index="0" disallow="tram rail_urban rail rail_electric rail_fast ship" speed="17.01" length="28.82" shape="4304.34,2134.66 4333.42,2133.53"/>
        <lane id=":c_15_1" index="1" disallow="tram rail_urban rail rail_electric rail_fast ship" speed="17.01" length="28.82" shape="4303.83,2137.92 4332.63,2136.86"/>
        <lane id=":c_15_2" index="2" disallow="tram rail_urban rail rail_electric rail_fast ship" speed="17.01" length="28.82" shape="4303.32,2141.18 4331.85,2140.18"/>
    </edge>
    <edge id=":c_18" function="internal">
        <lane id=":c_18_0" index="0" disallow="tram rail_urban rail rail_electric rail_fast ship" speed="11.66" length="33.87" shape="4302.81,2144.44 4310.97,2145.19 4316.76,2149.20 4320.16,2156.48 4321.19,2167.03"/>
    </edge>
    <edge id=":c_19" function="internal">
        <lane id=":c_19_0" index="0" disallow="tram rail_urban rail rail_electric rail_fast ship" speed="11.47" length="27.09" shape="4302.30,2147.71 4307.32,2148.54 4311.59,2152.06 4315.13,2158.26 4317.94,2167.16"/>
    </edge>
    <edge id=":c_20" function="internal">
        <lane id=":c_20_0" index="0" disallow="tram rail_urban rail rail_electric rail_fast ship" speed="4.54" length="8.44" shape="4302.30,2147.71 4301.00,2156.04"/>
    </edge>
    <edge id=":c_21" function="internal">
        <lane id=":c_21_0" index="0" disallow="tram rail_urban rail rail_electric rail_fast ship" speed="5.25" length="5.97" shape="4301.57,2167.81 4301.55,2165.45 4301.27,2163.79 4300.75,2162.82 4299.98,2162.53"/>
    </edge>
    <edge id=":c_22" function="internal">
        <lane id=":c_22_0" index="0" disallow="tram rail_urban rail rail_electric rail_fast ship" speed="20.12" length="37.21" shape="4304.78,2167.68 4308.29,2130.64"/>
    </edge>
    <edge id=":c_23" function="internal">
        <lane id=":c_23_0" index="0" disallow="tram rail_urban rail rail_electric rail_fast ship" speed="20.12" length="37.01" shape="4307.99,2167.55 4311.49,2130.71"/>
    </edge>
    <edge id=":c_24" function="internal">
        <lane id=":c_24_0" index="0" disallow="tram rail_urban rail rail_electric rail_fast ship" speed="14.76" length="44.40" shape="4311.19,2167.43 4313.01,2153.62 4317.32,2143.37 4324.13,2136.68 4333.42,2133.53"/>
    </edge>
    <edge id=":c_25" function="internal">
        <lane id=":c_25_0" index="0" disallow="tram rail_urban rail rail_electric rail_fast ship" speed="13.81" length="38.71" shape="4314.40,2167.30 4315.93,2154.82 4319.48,2145.58 4325.05,2139.60 4332.63,2136.86"/>
    </edge>
    <edge id=":c_26" function="internal">
        <lane id=":c_26_0" index="0" disallow="tram rail_urban rail rail_electric rail_fast ship" speed="4.18" length="6.80" shape="4314.40,2167.30 4321.19,2167.03"/>
    </edge>
    <edge id=":d_0" function="internal">
        <lane id=":d_0_0" index="0" disallow="tram rail_urban rail rail_electric rail_fast ship" speed="20.12" length="0.30" shape="3647.60,2254.60 3647.28,2254.64"/>
        <lane id=":d_0_1" index="1" disallow="tram rail_urban rail rail_electric rail_fast ship" speed="20.12" length="0.30" shape="3647.17,2251.43 3646.87,2251.47"/>
        <lane id=":d_0_2" index="2" disallow="tram rail_urban rail rail_electric rail_fast ship" speed="20.12" length="0.30" shape="3646.74,2248.26 3646.47,2248.29"/>
    </edge>
    <edge id=":e_0" function="internal">
        <lane id=":e_0_0" index="0" disallow="tram rail_urban rail rail_electric rail_fast ship" speed="17.01" length="8.31" shape="2438.00,2244.69 2435.48,2244.94 2433.82,2245.88 2432.16,2246.80 2429.64,2247.01"/>
        <lane id=":e_0_1" index="1" disallow="tram rail_urban rail rail_electric rail_fast ship" speed="17.01" length="8.31" shape="2438.00,2244.69 2430.01,2243.83"/>
        <lane id=":e_0_2" index="2" disallow="tram rail_urban rail rail_electric rail_fast ship" speed="17.01" length="8.31" shape="2438.31,2241.51 2430.37,2240.65"/>
        <lane id=":e_0_3" index="3" disallow="tram rail_urban rail rail_electric rail_fast ship" speed="17.01" length="8.31" shape="2438.63,2238.32 2430.74,2237.47"/>
        <lane id=":e_0_4" index="4" disallow="tram rail_urban rail rail_electric rail_fast ship" speed="17.01" length="8.31" shape="2438.63,2238.32 2436.26,2237.58 2434.87,2236.33 2433.47,2235.07 2431.11,2234.29"/>
    </edge>
    <edge id=":f_0" function="internal">
        <lane id=":f_0_0" index="0" disallow="tram rail_urban rail rail_electric rail_fast ship" speed="5.57" length="6.73" shape="2274.71,2229.64 2272.44,2229.65 2270.81,2230.12 2269.83,2231.05 2269.51,2232.42"/>
    </edge>
    <edge id=":f_1" function="internal">
        <lane id=":f_1_0" index="0" disallow="tram rail_urban rail rail_electric rail_fast ship" speed="17.01" length="18.46" shape="2275.16,2226.47 2269.69,2226.11 2265.93,2225.95 2262.20,2225.61 2256.79,2224.76"/>
    </edge>
    <edge id=":f_2" function="internal">
        <lane id=":f_2_0" index="0" disallow="tram rail_urban rail rail_electric rail_fast ship" speed="17.01" length="18.36" shape="2275.60,2223.29 2270.16,2222.94 2266.42,2222.78 2262.71,2222.45 2257.34,2221.61"/>
    </edge>
    <edge id=":f_3" function="internal">
        <lane id=":f_3_0" index="0" disallow="tram rail_urban rail rail_electric rail_fast ship" speed="17.01" length="18.25" shape="2276.04,2220.12 2270.63,2219.77 2266.92,2219.61 2263.23,2219.29 2257.88,2218.45"/>
    </edge>
    <edge id=":f_4" function="internal">
        <lane id=":f_4_0" index="0" disallow="tram rail_urban rail rail_electric rail_fast ship" speed="9.87" length="20.19" shape="2276.48,2216.94 2272.47,2215.68 2269.53,2212.65 2267.67,2207.86 2266.89,2201.29"/>
    </edge>
    <edge id=":f_5" function="internal">
        <lane id=":f_5_0" index="0" disallow="tram rail_urban rail rail_electric rail_fast ship" speed="4.41" length="7.83" shape="2276.48,2216.94 2274.67,2215.34 2274.20,2213.92 2275.04,2212.68 2277.22,2211.63"/>
    </edge>
    <edge id=":f_6" function="internal">
        <lane id=":f_6_0" index="0" disallow="tram rail_urban rail rail_electric rail_fast ship" speed="5.56" length="6.45" shape="2273.72,2201.69 2273.88,2203.15 2274.67,2204.24 2276.07,2204.94 2278.11,2205.27"/>
    </edge>
    <edge id=":f_7" function="internal">
        <lane id=":f_7_0" index="0" disallow="tram rail_urban rail rail_electric rail_fast ship" speed="11.17" length="31.03" shape="2273.72,2201.69 2272.68,2209.99 2271.28,2218.92 2270.04,2226.91 2269.51,2232.42"/>
    </edge>
    <edge id=":f_8" function="internal">
        <lane id=":f_8_0" index="0" disallow="tram rail_urban rail rail_electric rail_fast ship" speed="10.77" length="28.38" shape="2270.52,2201.50 2268.84,2209.01 2265.48,2216.83 2261.21,2222.80 2256.79,2224.76"/>
    </edge>
    <edge id=":f_9" function="internal">
        <lane id=":f_9_0" index="0" disallow="tram rail_urban rail rail_electric rail_fast ship" speed="10.22" length="25.46" shape="2270.52,2201.50 2268.95,2208.15 2265.76,2214.93 2261.66,2220.02 2257.34,2221.61"/>
    </edge>
    <edge id=":f_10" function="internal">
        <lane id=":f_10_0" index="0" disallow="tram rail_urban rail rail_electric rail_fast ship" speed="9.65" length="22.57" shape="2270.52,2201.50 2269.05,2207.25 2266.02,2212.98 2262.08,2217.21 2257.88,2218.45"/>
    </edge>
    <edge id=":f_11" function="internal">
        <lane id=":f_11_0" index="0" disallow="tram rail_urban rail rail_electric rail_fast ship" speed="5.68" length="7.67" shape="2260.50,2203.35 2263.33,2203.65 2265.34,2203.40 2266.53,2202.61 2266.89,2201.29"/>
    </edge>
    <edge id=":f_12" function="internal">
        <lane id=":f_12_0" index="0" disallow="tram rail_urban rail rail_electric rail_fast ship" speed="20.12" length="17.84" shape="2260.50,2203.35 2265.69,2204.22 2269.26,2204.68 2272.85,2204.96 2278.11,2205.27"/>
        <lane id=":f_12_1" index="1" disallow="tram rail_urban rail rail_electric rail_fast ship" speed="20.12" length="17.84" shape="2259.95,2206.51 2265.17,2207.38 2268.76,2207.85 2272.38,2208.14 2277.66,2208.45"/>
        <lane id=":f_12_2" index="2" disallow="tram rail_urban rail rail_electric rail_fast ship" speed="20.12" length="17.84" shape="2259.40,2209.66 2264.66,2210.54 2268.27,2211.02 2271.90,2211.31 2277.22,2211.63"/>
    </edge>
    <edge id=":f_15" function="internal">
        <lane id=":f_15_0" index="0" disallow="tram rail_urban rail rail_electric rail_fast ship" speed="11.04" length="24.32" shape="2258.86,2212.81 2263.53,2214.73 2266.86,2218.64 2268.85,2224.54 2269.51,2232.42"/>
    </edge>
    <edge id=":f_16" function="internal">
        <lane id=":f_16_0" index="0" disallow="tram rail_urban rail rail_electric rail_fast ship" speed="3.92" length="5.72" shape="2258.86,2212.81 2257.88,2218.45"/>
    </edge>
    <edge id=":f_17" function="internal">
        <lane id=":f_17_0" index="0" disallow="tram rail_urban rail rail_electric rail_fast ship" speed="6.95" length="9.89" shape="2261.23,2232.40 2261.23,2229.41 2260.49,2227.14 2259.01,2225.59 2256.79,2224.76"/>
    </edge>
    <edge id=":f_18" function="internal">
        <lane id=":f_18_0" index="0" disallow="tram rail_urban rail rail_electric rail_fast ship" speed="11.17" length="31.64" shape="2261.23,2232.40 2262.59,2224.05 2264.52,2214.99 2266.22,2206.86 2266.89,2201.29"/>
    </edge>
    <edge id=":f_19" function="internal">
        <lane id=":f_19_0" index="0" disallow="tram rail_urban rail rail_electric rail_fast ship" speed="11.85" length="31.21" shape="2264.45,2232.41 2266.33,2224.40 2269.88,2215.42 2274.13,2208.15 2278.11,2205.27"/>
    </edge>
    <edge id=":f_20" function="internal">
        <lane id=":f_20_0" index="0" disallow="tram rail_urban rail rail_electric rail_fast ship" speed="11.33" length="28.40" shape="2264.45,2232.41 2266.20,2224.89 2269.49,2217.00 2273.56,2210.82 2277.66,2208.45"/>
    </edge>
    <edge id=":f_21" function="internal">
        <lane id=":f_21_0" index="0" disallow="tram rail_urban rail rail_electric rail_fast ship" speed="10.76" length="25.52" shape="2264.45,2232.41 2266.08,2225.71 2269.20,2218.87 2273.14,2213.61 2277.22,2211.63"/>
    </edge>
    <edge id=":g_0" function="internal">
        <lane id=":g_0_0" index="0" disallow="tram rail_urban rail rail_electric rail_fast ship" speed="20.12" length="0.30" shape="2147.33,2211.32 2147.06,2211.29"/>
        <lane id=":g_0_1" index="1" disallow="tram rail_urban rail rail_electric rail_fast ship" speed="20.12" length="0.30" shape="2147.68,2208.14 2147.38,2208.11"/>
        <lane id=":g_0_2" index="2" disallow="tram rail_urban rail rail_electric rail_fast ship" speed="20.12" length="0.30" shape="2148.02,2204.95 2147.70,2204.92"/>
    </edge>
    <edge id=":j_0" function="internal">
        <lane id=":j_0_0" index="0" disallow="tram rail_urban rail rail_electric rail_fast ship" speed="20.12" length="8.46" shape="2082.92,2176.46 2085.34,2176.46 2087.01,2176.09 2088.67,2175.73 2091.09,2175.76"/>
        <lane id=":j_0_1" index="1" disallow="tram rail_urban rail rail_electric rail_fast ship" speed="20.12" length="8.46" shape="2082.92,2176.46 2085.28,2176.96 2086.82,2177.68 2088.36,2178.41 2090.72,2178.94"/>
        <lane id=":j_0_2" index="2" disallow="tram rail_urban rail rail_electric rail_fast ship" speed="20.12" length="8.46" shape="2082.59,2179.64 2085.22,2179.17 2086.84,2177.68 2088.46,2176.21 2091.09,2175.76"/>
        <lane id=":j_0_3" index="3" disallow="tram rail_urban rail rail_electric rail_fast ship" speed="20.12" length="8.46" shape="2082.59,2179.64 2085.00,2179.65 2086.65,2179.27 2088.31,2178.91 2090.72,2178.94"/>
        <lane id=":j_0_4" index="4" disallow="tram rail_urban rail rail_electric rail_fast ship" speed="20.12" length="8.46" shape="2082.25,2182.83 2084.65,2182.83 2086.30,2182.45 2087.94,2182.09 2090.34,2182.12"/>
        <lane id=":j_0_5" index="5" disallow="tram rail_urban rail rail_electric rail_fast ship" speed="20.12" length="8.46" shape="2082.25,2182.83 2084.59,2183.32 2086.11,2184.04 2087.63,2184.77 2089.96,2185.30"/>
    </edge>
    <edge id=":k_0" function="internal">
        <lane id=":k_0_0" index="0" disallow="tram rail_urban rail rail_electric rail_fast ship" speed="17.01" length="9.04" shape="4144.52,2154.24 4147.10,2152.92 4148.15,2150.55 4149.20,2148.19 4151.79,2146.89"/>
        <lane id=":k_0_1" index="1" disallow="tram rail_urban rail rail_electric rail_fast ship" speed="17.01" length="9.04" shape="4144.52,2154.24 4146.92,2153.44 4148.32,2152.14 4149.73,2150.85 4152.13,2150.07"/>
        <lane id=":k_0_2" index="2" disallow="tram rail_urban rail rail_electric rail_fast ship" speed="17.01" length="9.04" shape="4144.89,2157.42 4147.28,2156.62 4148.68,2155.32 4150.08,2154.03 4152.47,2153.25"/>
        <lane id=":k_0_3" index="3" disallow="tram rail_urban rail rail_electric rail_fast ship" speed="17.01" length="9.04" shape="4145.26,2160.60 4147.64,2159.80 4149.03,2158.50 4150.43,2157.21 4152.82,2156.43"/>
        <lane id=":k_0_4" index="4" disallow="tram rail_urban rail rail_electric rail_fast ship" speed="17.01" length="9.04" shape="4145.26,2160.60 4153.16,2159.61"/>
        <lane id=":k_0_5" index="5" disallow="tram rail_urban rail rail_electric rail_fast ship" speed="17.01" length="9.04" shape="4145.26,2160.60 4147.74,2160.80 4149.38,2161.68 4151.02,2162.58 4153.50,2162.80"/>
    </edge>
    <edge id=":l_0" function="internal">
        <lane id=":l_0_0" index="0" disallow="tram rail_urban rail rail_electric rail_fast ship" speed="20.12" length="0.30" shape="4703.25,2087.37 4703.55,2087.33"/>
        <lane id=":l_0_1" index="1" disallow="tram rail_urban rail rail_electric rail_fast ship" speed="20.12" length="0.30" shape="4703.67,2090.54 4703.97,2090.50"/>
        <lane id=":l_0_2" index="2" disallow="tram rail_urban rail rail_electric rail_fast ship" speed="20.12" length="0.30" shape="4704.09,2093.71 4704.38,2093.67"/>
    </edge>
    <edge id=":o_0" function="internal">
        <lane id=":o_0_0" index="0" disallow="tram rail_urban rail rail_electric rail_fast ship" speed="20.12" length="8.81" shape="4327.49,1833.83 4328.25,1836.39 4329.91,1837.81 4331.57,1839.24 4332.34,1841.80"/>
        <lane id=":o_0_1" index="1" disallow="tram rail_urban rail rail_electric rail_fast ship" speed="20.12" length="8.81" shape="4327.49,1833.83 4327.75,1836.23 4328.31,1837.83 4328.87,1839.42 4329.14,1841.82"/>
        <lane id=":o_0_2" index="2" disallow="tram rail_urban rail rail_electric rail_fast ship" speed="20.12" length="8.81" shape="4324.29,1833.85 4324.55,1836.24 4325.11,1837.84 4325.67,1839.44 4325.94,1841.84"/>
        <lane id=":o_0_3" index="3" disallow="tram rail_urban rail rail_electric rail_fast ship" speed="20.12" length="8.81" shape="4324.29,1833.85 4324.05,1836.25 4323.51,1837.85 4322.97,1839.46 4322.74,1841.86"/>
        <lane id=":o_0_4" index="4" disallow="tram rail_urban rail rail_electric rail_fast ship" speed="20.12" length="8.81" shape="4324.29,1833.85 4323.55,1836.42 4321.91,1837.87 4320.27,1839.32 4319.54,1841.88"/>
    </edge>
    <edge id=":r_0" function="internal">
        <lane id=":r_0_0" index="0" speed="20.12" length="9.15" shape="4287.50,2458.70 4287.13,2456.21 4286.11,2454.60 4285.10,2453.00 4284.75,2450.50"/>
        <lane id=":r_0_1" index="1" speed="20.12" length="9.15" shape="4287.50,2458.70 4287.94,2450.69"/>
        <lane id=":r_0_2" index="2" speed="20.12" length="9.15" shape="4290.70,2458.86 4290.32,2456.37 4289.31,2454.78 4288.30,2453.18 4287.94,2450.69"/>
        <lane id=":r_0_3" index="3" speed="20.12" length="9.15" shape="4290.70,2458.86 4291.14,2450.88"/>
        <lane id=":r_0_4" index="4" speed="20.12" length="9.15" shape="4293.90,2459.02 4292.55,2455.93 4289.30,2454.76 4286.07,2453.59 4284.75,2450.50"/>
        <lane id=":r_0_5" index="5" speed="20.12" length="9.15" shape="4293.90,2459.02 4294.33,2451.07"/>
        <lane id=":r_0_6" index="6" speed="20.12" length="9.15" shape="4293.90,2459.02 4294.52,2456.61 4295.70,2455.14 4296.88,2453.68 4297.53,2451.26"/>
    </edge>
    <edge id=":s_0" function="internal">
        <lane id=":s_0_0" index="0" disallow="tram rail_urban rail rail_electric rail_fast ship" speed="20.12" length="1.74" shape="4311.35,1848.11 4311.35,1847.87"/>
        <lane id=":s_0_1" index="1" disallow="tram rail_urban rail rail_electric rail_fast ship" speed="20.12" length="1.74" shape="4311.35,1848.11 4314.55,1847.82"/>
        <lane id=":s_0_2" index="2" disallow="tram rail_urban rail rail_electric rail_fast ship" speed="20.12" length="1.74" shape="4314.55,1848.13 4311.35,1847.87"/>
        <lane id=":s_0_3" index="3" disallow="tram rail_urban rail rail_electric rail_fast ship" speed="20.12" length="1.74" shape="4314.55,1848.13 4314.55,1847.82"/>
    </edge>
    <edge id=":u_0" function="internal">
        <lane id=":u_0_0" index="0" disallow="tram rail_urban rail rail_electric rail_fast ship" speed="3.65" length="4.67" shape="2299.57,22.55 2300.39,21.37 2301.20,20.98 2301.99,21.40 2302.77,22.61"/>
    </edge>
    <edge id=":v_0" function="internal">
        <lane id=":v_0_0" index="0" disallow="tram rail_urban rail rail_electric rail_fast ship" speed="11.17" length="7.78" shape="2274.01,1985.83 2274.41,1993.50"/>
        <lane id=":v_0_1" index="1" disallow="tram rail_urban rail rail_electric rail_fast ship" speed="11.17" length="7.78" shape="2270.81,1985.90 2271.22,1993.77"/>
    </edge>
    <edge id=":v_2" function="internal">
        <lane id=":v_2_0" index="0" disallow="tram rail_urban rail rail_electric rail_fast ship" speed="11.17" length="8.47" shape="2267.68,1994.06 2267.19,1991.59 2266.09,1990.05 2264.97,1988.51 2264.41,1986.04"/>